
#
# Aligned_sequences: 2
# 1: A_Sequence
# 2: B_Sequence
# Matrix: EBLOSUM62
# Gap_penalty: 8.0
# Extend_penalty: 2.0
#
# Length: 269
# Identity:      71/269 (26.4%)
# Similarity:   114/269 (42.4%)
# Gaps:          24/269 ( 8.9%)
# Score: 170.0
# 
#
#=======================================

A_Sequence         1 LRDLVLGVLGTAAFLLDLGTDLWAAVQYALGGRYLWAALVLALLGLASVA     50
                     ::|::|  :|   | :| |||:   : |    |:    |    : : || 
B_Sequence         1 IKDIILAFIGFLTFAIDYGTDIRLLIYYYTEQRWSHLYLTAGFIIVPSVI     50

A_Sequence        51 LQLFSWLWLRA-DPAGLHGSQPPRRCL----ALLHLLQLGYLYRCVQELR     95
                       : | :| :      :       | |     ||  |||| |:|  : : 
B_Sequence        51 SGIISMIWYKMYYKRDIRHEYKHARTLYLFRILLSFLQLGRLWRQAEYIY    100

A_Sequence        96 QGLLVWQQEEPSEFDLAYADFL-------ALDISMLRLFETFLETAPQLT    138
                           : |   | : | |  |         | ::| | : |||:|  | 
B_Sequence       101 NASHSIRMERDKE-NSAKAHRLRKRATEEKRDATILGLIDGFLESA--LQ    147

A_Sequence       139 LVLAIMLQSGRAEYYQWVGICTSFLGISWA-----LLDYHRALRTCLPSK    183
                     |:| | : :    |     | :| |  ||      :  |:|| |     |
B_Sequence       148 LILQIFIAADNQYYITDFPILSSLLA-SWVSTSLIITTYYRANRKAQKDK    196

A_Sequence       184 PLLGLGSSVIYFLWNLLLLWPRVLAVALFSALFPSYVALHFL-GLWLVLL    232
                       :   ||  | || :  | || : : | :| |  :| :  :  :  |:|
B_Sequence       197 QNVDYVSSFFYLLWRMFELGPRYILLGLCAAYFKPWVFIVAVPHVIFVVL    246

A_Sequence       233 LWVWLQG--TDFMPDPSSE    249
                     |: : :        ||| |
B_Sequence       247 LYRFTKAELAGICDDPSEE    265


#---------------------------------------

============ FINISHED =============
Average Quality (AQ)	15.54 +/- 7.18
Standard score (Z):	22.0
Precise score (Z):	21.507
Shuffles:	1000
