
#
# Aligned_sequences: 2
# 1: A_Sequence
# 2: B_Sequence
# Matrix: EBLOSUM62
# Gap_penalty: 8.0
# Extend_penalty: 2.0
#
# Length: 428
# Identity:     208/428 (48.6%)
# Similarity:   273/428 (63.8%)
# Gaps:          58/428 (13.6%)
# Score: 923.0
# 
#
#=======================================

A_Sequence         1 GLQTESIPEEMKQIVEEQGNKLHWAALLILMVIIPTIGGNTLVILAVSLE     50
                     ||   :  | : : | :: |   | |||||::|  |:||| |||||||||
B_Sequence         1 GLDNSTTQESVTRTVIKEKN---WPALLILVIIALTVGGNILVILAVSLE     47

A_Sequence        51 KKLQYATNYFLMSLAVADLLVGLFVMPIALLTIMFEAMWPLPLVLCPAWL    100
                     |||| |||:|| ||||||:|||: ||||:|: |:::  ||||  ||| |:
B_Sequence        48 KKLQNATNFFLRSLAVADMLVGILVMPISLINILYDYAWPLPSALCPIWI     97

A_Sequence       101 FLDVLFSTASIMHLCAISVDRYIAIKKPIQANQYNSRATAFIKITVVWLI    150
                     :|||||||||||||||||:|||:||: ||: :::|||  | :||  || |
B_Sequence        98 YLDVLFSTASIMHLCAISLDRYVAIRNPIEHSRFNSRTKAMMKIAAVWTI    147

A_Sequence       151 SIGIAIPVPIKGIETDVDNPNNITCVLTKERFGDFMLFGSLAAFFTPLAI    200
                     |||:::|:|: |:  :     | :||| :||   ||| ||  ||| || |
B_Sequence       148 SIGVSMPIPVIGLHNEDKVFVNGSCVLNEER---FMLIGSFVAFFIPLVI    194

A_Sequence       201 MIVTYFLTIHALQKKA----YLVKNKPPQRLT--WLT------------V    232
                     |:||| |||  ||::|    |  |:   | |:   :|            :
B_Sequence       195 MVVTYCLTIQVLQRQATVFLYEAKSSSQQPLSAPAITLQPPASPFHLPEI    244

A_Sequence       233 STV--------------FQRDETPC-SSPEKVAMLDGSRKD--KALPNSG    265
                     :|:               :|:   |   ||   :|  |  |    :|:| 
B_Sequence       245 NTLDPPDSQELKPPPLQSRRNTLSCLKGPEPSILLSASTSDSLSIIPSSE    294

A_Sequence       266 DETLMR-------RTSTIG----KKSVQTISNEQRASKVLGIVFFLFLLM    304
                       : :        |:   |    :  :| | ||:||||||||||||||:|
B_Sequence       295 AASQLSSPAMGPGRSDASGCHGRRGMMQAIKNERRASKVLGIVFFLFLIM    344

A_Sequence       305 WCPFFITNITLVLC-DSCNQTTLQMLLEIFVWIGYVSSGVNPLVYTLFNK    353
                     ||||||||:| |||  |||:: |  || :|||:||:||||||||||||||
B_Sequence       345 WCPFFITNVTFVLCRGSCNESLLHDLLNVFVWVGYISSGVNPLVYTLFNK    394

A_Sequence       354 TFRDAFGRYITCNYR-----ATKSVKTL    376
                     |:| ||  || | |:     | :  |||
B_Sequence       395 TYRRAFSNYIRCQYKVGANAAGQGGKTL    422


#---------------------------------------

============ FINISHED =============
Average Quality (AQ)	15.19 +/- 7.41
Standard score (Z):	122.0
Precise score (Z):	122.456
Shuffles:	1000
